# generated using pymatgen
data_CuI
_symmetry_space_group_name_H-M   'P 1'
_cell_length_a   6.06
_cell_length_b   6.06
_cell_length_c   6.06
_cell_angle_alpha   90.00000000
_cell_angle_beta   90.00000000
_cell_angle_gamma   90.00000000
_symmetry_Int_Tables_number   1
_chemical_formula_structural   CuI
_chemical_formula_sum   'Cu4 I4'
_cell_volume   219.85141101
_cell_formula_units_Z   4
loop_
 _symmetry_equiv_pos_site_id
 _symmetry_equiv_pos_as_xyz
  1  'x, y, z'
loop_
 _atom_site_type_symbol
 _atom_site_label
 _atom_site_symmetry_multiplicity
 _atom_site_fract_x
 _atom_site_fract_y
 _atom_site_fract_z
 _atom_site_occupancy
  Cu  Cu1  1  0.250000  0.750000  0.750000  1
  Cu  Cu2  1  0.250000  0.250000  0.250000  1
  Cu  Cu3  1  0.750000  0.750000  0.250000  1
  Cu  Cu4  1  0.750000  0.250000  0.750000  1
  I  I5  1  0.000000  0.000000  0.000000  1
  I  I6  1  0.000000  0.500000  0.500000  1
  I  I7  1  0.500000  0.000000  0.500000  1
  I  I8  1  0.500000  0.500000  0.000000  1
