# generated using pymatgen
data_NaNbO3
_symmetry_space_group_name_H-M   'P 1'
_cell_length_a   5.57401198
_cell_length_b   5.57401198
_cell_length_c   14.03724756
_cell_angle_alpha   90.00000000
_cell_angle_beta   90.00000000
_cell_angle_gamma   120.00000000
_symmetry_Int_Tables_number   1
_chemical_formula_structural   NaNbO3
_chemical_formula_sum   'Na6 Nb6 O18'
_cell_volume   377.701218882
_cell_formula_units_Z   6
loop_
 _symmetry_equiv_pos_site_id
 _symmetry_equiv_pos_as_xyz
  1  'x, y, z'
loop_
 _atom_site_type_symbol
 _atom_site_label
 _atom_site_symmetry_multiplicity
 _atom_site_fract_x
 _atom_site_fract_y
 _atom_site_fract_z
 _atom_site_occupancy
  Na  Na1  1  0.666667  0.333333  0.058800  1
  Na  Na2  1  0.333333  0.666667  0.892133  1
  Na  Na3  1  0.333333  0.666667  0.392133  1
  Na  Na4  1  0.000000  0.000000  0.225466  1
  Na  Na5  1  0.000000  0.000000  0.725466  1
  Na  Na6  1  0.666667  0.333333  0.558800  1
  Nb  Nb7  1  0.000000  0.000000  0.986165  1
  Nb  Nb8  1  0.333333  0.666667  0.152831  1
  Nb  Nb9  1  0.666667  0.333333  0.319498  1
  Nb  Nb10  1  0.000000  0.000000  0.486165  1
  Nb  Nb11  1  0.333333  0.666667  0.652831  1
  Nb  Nb12  1  0.666667  0.333333  0.819498  1
  O  O13  1  0.233631  0.330417  0.086623  1
  O  O14  1  0.669583  0.903214  0.086623  1
  O  O15  1  0.096786  0.766369  0.086623  1
  O  O16  1  0.336250  0.099702  0.919956  1
  O  O17  1  0.763452  0.663750  0.919956  1
  O  O18  1  0.900298  0.236548  0.919956  1
  O  O19  1  0.900298  0.663750  0.419956  1
  O  O20  1  0.336250  0.236548  0.419956  1
  O  O21  1  0.763452  0.099702  0.419956  1
  O  O22  1  0.002916  0.433036  0.253290  1
  O  O23  1  0.430119  0.997084  0.253290  1
  O  O24  1  0.566964  0.569881  0.253290  1
  O  O25  1  0.566964  0.997084  0.753290  1
  O  O26  1  0.002916  0.569881  0.753290  1
  O  O27  1  0.430119  0.433036  0.753290  1
  O  O28  1  0.669583  0.766369  0.586623  1
  O  O29  1  0.096786  0.330417  0.586623  1
  O  O30  1  0.233631  0.903214  0.586623  1
