# generated using pymatgen
data_SrTiO3
_symmetry_space_group_name_H-M   'P 1'
_cell_length_a   5.56772841
_cell_length_b   5.56772841
_cell_length_c   7.90710612
_cell_angle_alpha   90.00000000
_cell_angle_beta   90.00000000
_cell_angle_gamma   90.00000000
_symmetry_Int_Tables_number   1
_chemical_formula_structural   SrTiO3
_chemical_formula_sum   'Sr4 Ti4 O12'
_cell_volume   245.117123724
_cell_formula_units_Z   4
loop_
 _symmetry_equiv_pos_site_id
 _symmetry_equiv_pos_as_xyz
  1  'x, y, z'
loop_
 _atom_site_type_symbol
 _atom_site_label
 _atom_site_symmetry_multiplicity
 _atom_site_fract_x
 _atom_site_fract_y
 _atom_site_fract_z
 _atom_site_occupancy
  Sr  Sr1  1  0.500000  0.000000  0.250000  1
  Sr  Sr2  1  0.000000  0.500000  0.250000  1
  Sr  Sr3  1  0.000000  0.500000  0.750000  1
  Sr  Sr4  1  0.500000  0.000000  0.750000  1
  Ti  Ti5  1  0.500000  0.500000  0.000000  1
  Ti  Ti6  1  0.000000  0.000000  0.000000  1
  Ti  Ti7  1  0.000000  0.000000  0.500000  1
  Ti  Ti8  1  0.500000  0.500000  0.500000  1
  O  O9  1  0.729067  0.229067  0.000000  1
  O  O10  1  0.229067  0.270933  0.000000  1
  O  O11  1  0.770933  0.729067  0.000000  1
  O  O12  1  0.270933  0.770933  0.000000  1
  O  O13  1  0.500000  0.500000  0.250000  1
  O  O14  1  0.000000  0.000000  0.250000  1
  O  O15  1  0.229067  0.729067  0.500000  1
  O  O16  1  0.729067  0.770933  0.500000  1
  O  O17  1  0.270933  0.229067  0.500000  1
  O  O18  1  0.770933  0.270933  0.500000  1
  O  O19  1  0.000000  0.000000  0.750000  1
  O  O20  1  0.500000  0.500000  0.750000  1
