# generated using pymatgen
data_In2S3
_symmetry_space_group_name_H-M   'P 1'
_cell_length_a   7.62
_cell_length_b   7.62
_cell_length_c   32.36
_cell_angle_alpha   90.00000000
_cell_angle_beta   90.00000000
_cell_angle_gamma   90.00000000
_symmetry_Int_Tables_number   1
_chemical_formula_structural   In2S3
_chemical_formula_sum   'In32 S48'
_cell_volume   1982.90862564
_cell_formula_units_Z   16
loop_
 _symmetry_equiv_pos_site_id
 _symmetry_equiv_pos_as_xyz
  1  'x, y, z'
loop_
 _atom_site_type_symbol
 _atom_site_label
 _atom_site_symmetry_multiplicity
 _atom_site_fract_x
 _atom_site_fract_y
 _atom_site_fract_z
 _atom_site_occupancy
  In  In1  1  0.500000  0.000000  0.579772  1
  In  In2  1  0.000000  0.000000  0.829772  1
  In  In3  1  0.500000  0.500000  0.670228  1
  In  In4  1  0.000000  0.500000  0.420228  1
  In  In5  1  0.500000  0.268209  0.792811  1
  In  In6  1  0.768209  0.000000  0.707189  1
  In  In7  1  0.231791  0.000000  0.707189  1
  In  In8  1  0.500000  0.768209  0.457189  1
  In  In9  1  0.500000  0.231791  0.457189  1
  In  In10  1  0.768209  0.500000  0.542811  1
  In  In11  1  0.231791  0.500000  0.542811  1
  In  In12  1  0.500000  0.731791  0.792811  1
  In  In13  1  0.000000  0.750000  0.625000  1
  In  In14  1  0.750000  0.500000  0.875000  1
  In  In15  1  0.250000  0.500000  0.875000  1
  In  In16  1  0.000000  0.250000  0.625000  1
  In  In17  1  0.000000  0.500000  0.079772  1
  In  In18  1  0.500000  0.500000  0.329772  1
  In  In19  1  0.000000  0.000000  0.170228  1
  In  In20  1  0.500000  0.000000  0.920228  1
  In  In21  1  0.000000  0.768209  0.292811  1
  In  In22  1  0.268209  0.500000  0.207189  1
  In  In23  1  0.731791  0.500000  0.207189  1
  In  In24  1  0.000000  0.268209  0.957189  1
  In  In25  1  0.000000  0.731791  0.957189  1
  In  In26  1  0.268209  0.000000  0.042811  1
  In  In27  1  0.731791  0.000000  0.042811  1
  In  In28  1  0.000000  0.231791  0.292811  1
  In  In29  1  0.500000  0.250000  0.125000  1
  In  In30  1  0.250000  0.000000  0.375000  1
  In  In31  1  0.750000  0.000000  0.375000  1
  In  In32  1  0.500000  0.750000  0.125000  1
  S  S33  1  0.500000  0.227499  0.711996  1
  S  S34  1  0.727499  0.000000  0.788004  1
  S  S35  1  0.272501  0.000000  0.788004  1
  S  S36  1  0.500000  0.727499  0.538004  1
  S  S37  1  0.500000  0.272501  0.538004  1
  S  S38  1  0.727499  0.500000  0.461996  1
  S  S39  1  0.272501  0.500000  0.461996  1
  S  S40  1  0.500000  0.772501  0.711996  1
  S  S41  1  0.000000  0.736955  0.547204  1
  S  S42  1  0.736955  0.000000  0.452796  1
  S  S43  1  0.263045  0.000000  0.452796  1
  S  S44  1  0.000000  0.236955  0.702796  1
  S  S45  1  0.000000  0.763045  0.702796  1
  S  S46  1  0.736955  0.500000  0.797204  1
  S  S47  1  0.263045  0.500000  0.797204  1
  S  S48  1  0.000000  0.263045  0.547204  1
  S  S49  1  0.500000  0.742345  0.874311  1
  S  S50  1  0.242345  0.500000  0.624311  1
  S  S51  1  0.757655  0.500000  0.624311  1
  S  S52  1  0.500000  0.242345  0.375689  1
  S  S53  1  0.500000  0.757655  0.375689  1
  S  S54  1  0.242345  0.000000  0.625689  1
  S  S55  1  0.757655  0.000000  0.625689  1
  S  S56  1  0.500000  0.257655  0.874311  1
  S  S57  1  0.000000  0.727499  0.211996  1
  S  S58  1  0.227499  0.500000  0.288004  1
  S  S59  1  0.772501  0.500000  0.288004  1
  S  S60  1  0.000000  0.227499  0.038004  1
  S  S61  1  0.000000  0.772501  0.038004  1
  S  S62  1  0.227499  0.000000  0.961996  1
  S  S63  1  0.772501  0.000000  0.961996  1
  S  S64  1  0.000000  0.272501  0.211996  1
  S  S65  1  0.500000  0.236955  0.047204  1
  S  S66  1  0.236955  0.500000  0.952796  1
  S  S67  1  0.763045  0.500000  0.952796  1
  S  S68  1  0.500000  0.736955  0.202796  1
  S  S69  1  0.500000  0.263045  0.202796  1
  S  S70  1  0.236955  0.000000  0.297204  1
  S  S71  1  0.763045  0.000000  0.297204  1
  S  S72  1  0.500000  0.763045  0.047204  1
  S  S73  1  0.000000  0.242345  0.374311  1
  S  S74  1  0.742345  0.000000  0.124311  1
  S  S75  1  0.257655  0.000000  0.124311  1
  S  S76  1  0.000000  0.742345  0.875689  1
  S  S77  1  0.000000  0.257655  0.875689  1
  S  S78  1  0.742345  0.500000  0.125689  1
  S  S79  1  0.257655  0.500000  0.125689  1
  S  S80  1  0.000000  0.757655  0.374311  1
